Circuit: * C:\Users\kenny\Documents\GitHub\SeniorDesign-Team9\Simulations\LTC3780 - LTSpice - 19V 10A - Ken\LTC3780.asc

Direct Newton iteration for .op point succeeded.

Date: Mon Apr  3 23:04:30 2023
Total elapsed time: 26.336 seconds.

tnom = 27
temp = 27
method = modified trap
totiter = 3233441
traniter = 3233425
tranpoints = 1195826
accept = 875914
rejected = 319912
matrix size = 62
fillins = 45
solver = Normal
Avg thread counts: 1.0/1.0/1.0/1.0
Matrix Compiler1: 5.97 KB object code size  1.5/1.0/[0.9]
Matrix Compiler2: 5.71 KB object code size  0.5/1.0/[0.4]

