Circuit: * C:\Users\kenny\Documents\GitHub\SeniorDesign-Team9\Simulations\LTC3780 - LTSpice - 19V 10A - Ken\LTC3780.asc

Direct Newton iteration for .op point succeeded.

Date: Tue Apr  4 00:47:41 2023
Total elapsed time: 27.045 seconds.

tnom = 27
temp = 27
method = modified trap
totiter = 3276506
traniter = 3276490
tranpoints = 1218566
accept = 891644
rejected = 326922
matrix size = 62
fillins = 45
solver = Normal
Avg thread counts: 1.0/1.0/1.0/1.0
Matrix Compiler1: 5.97 KB object code size  1.2/0.7/[0.6]
Matrix Compiler2: off  [0.4]/1.0/0.4

