Circuit: * C:\Users\kenny\Documents\GitHub\SeniorDesign-Team9\Simulations\LTC3780 - LTSpice - 19V 10A - Ken\LTC3780.asc

Direct Newton iteration for .op point succeeded.
Heightened Def Con from 0.00385695 to 0.00385695

Date: Mon Apr  3 16:31:36 2023
Total elapsed time: 11.488 seconds.

tnom = 27
temp = 27
method = modified trap
totiter = 1019271
traniter = 1019255
tranpoints = 376244
accept = 278179
rejected = 98066
matrix size = 62
fillins = 45
solver = Normal
Avg thread counts: 1.0/1.0/1.0/1.0
Matrix Compiler1: 5.97 KB object code size  1.4/0.7/[0.6]
Matrix Compiler2: 5.71 KB object code size  0.4/0.5/[0.4]

