Circuit: * C:\Users\kenny\Documents\GitHub\SeniorDesign-Team9\Simulations\LTC3780 - LTSpice - 19V 10A - Ken\LTC3780.asc

Direct Newton iteration for .op point succeeded.

Date: Sun Sep 17 02:21:03 2023
Total elapsed time: 37.870 seconds.

tnom = 27
temp = 27
method = modified trap
totiter = 3226451
traniter = 3226435
tranpoints = 1195582
accept = 878258
rejected = 317324
matrix size = 62
fillins = 45
solver = Normal
Avg thread counts: 1.0/3.0/1.0/1.0
Matrix Compiler1: 5.97 KB object code size  1.0/0.6/[0.4]
Matrix Compiler2: 5.71 KB object code size  0.4/0.5/[0.3]

