Circuit: * C:\Users\kenny\Documents\GitHub\SeniorDesign-Team9\Simulations\LTC3780 - LTSpice - 19V 10A - Ken\LTC3780.asc

Direct Newton iteration for .op point succeeded.

Date: Mon May 15 01:38:01 2023
Total elapsed time: 0.135 seconds.

tnom = 27
temp = 27
method = modified trap
totiter = 2610
traniter = 2594
tranpoints = 1266
accept = 1215
rejected = 51
matrix size = 62
fillins = 45
solver = Normal
Avg thread counts: 1.3/1.5/1.5/1.3
Matrix Compiler1: 5.97 KB object code size  1.5/1.0/[0.8]
Matrix Compiler2: 5.71 KB object code size  0.5/1.1/[0.4]

