Circuit: * C:\Users\kenny\Documents\GitHub\SeniorDesign-Team9\Simulations\LTC3780 - LTSpice - 19V 10A - Ken\LTC3780.asc

Direct Newton iteration for .op point succeeded.

Date: Mon Apr  3 17:36:52 2023
Total elapsed time: 57.782 seconds.

tnom = 27
temp = 27
method = modified trap
totiter = 3198679
traniter = 3198663
tranpoints = 1181830
accept = 876678
rejected = 305152
matrix size = 62
fillins = 45
solver = Normal
Avg thread counts: 1.0/3.0/1.0/1.0
Matrix Compiler1: 5.97 KB object code size  1.0/0.7/[0.5]
Matrix Compiler2: 5.71 KB object code size  0.7/0.8/[0.5]

