Circuit: * C:\Users\kenny\Documents\GitHub\SeniorDesign-Team9\Simulations\LTC3780 - LTSpice - 19V 10A - Ken\LTC3780.asc

Direct Newton iteration for .op point succeeded.
Heightened Def Con from 0.00463227 to 0.00463227

Date: Sat May 13 20:08:11 2023
Total elapsed time: 14.473 seconds.

tnom = 27
temp = 27
method = modified trap
totiter = 1303156
traniter = 1303140
tranpoints = 481723
accept = 352843
rejected = 128881
matrix size = 62
fillins = 45
solver = Normal
Avg thread counts: 1.0/2.0/1.0/1.0
Matrix Compiler1: 5.97 KB object code size  1.0/0.7/[0.3]
Matrix Compiler2: 5.71 KB object code size  0.4/0.6/[0.3]

