Circuit: * C:\Users\kenny\Documents\GitHub\SeniorDesign-Team9\Simulations\LTC3780 - LTSpice - 19V 10A - Ken\LTC3780.asc

Direct Newton iteration for .op point succeeded.

Date: Tue Apr  4 01:20:40 2023
Total elapsed time: 27.070 seconds.

tnom = 27
temp = 27
method = modified trap
totiter = 3230934
traniter = 3230918
tranpoints = 1196819
accept = 878541
rejected = 318278
matrix size = 62
fillins = 45
solver = Normal
Avg thread counts: 1.0/1.0/1.0/1.0
Matrix Compiler1: 5.97 KB object code size  1.4/1.0/[0.5]
Matrix Compiler2: 5.71 KB object code size  0.6/0.8/[0.4]

