Circuit: * C:\Users\kenny\Downloads\LTC4416_Custom_Ken.asc

Direct Newton iteration failed to find .op point.  (Use ".option noopiter" to skip.)
Starting Gmin stepping
Increasing initial diagonal Gmin to 100
Increasing initial diagonal Gmin to 1000
Increasing initial diagonal Gmin to 10000
Increasing initial diagonal Gmin to 100000
Gmin = 100000
Gmin = 10737.4
Gmin = 1152.92
Gmin = 123.794
Gmin = 13.2923
Gmin = 1.42725
Gmin = 0.15325
Gmin = 0.016455
Gmin = 0.00176685
Gmin = 0.000189714
Gmin = 2.03704e-05
Gmin = 2.18725e-06
Gmin = 2.34854e-07
Gmin = 2.52173e-08
Gmin = 2.70769e-09
Gmin = 2.90735e-10
Gmin = 3.12175e-11
Gmin = 3.35195e-12
Gmin = 3.59913e-13
Gmin = 0
Gmin stepping succeeded in finding the operating point.

Heightened Def Con from 0.181967 to 0.181967

Date: Fri Mar 10 12:53:01 2023
Total elapsed time: 0.193 seconds.

tnom = 27
temp = 27
method = modified trap
totiter = 5291
traniter = 4308
tranpoints = 1608
accept = 1462
rejected = 147
matrix size = 62
fillins = 26
solver = Normal
Avg thread counts: 1.2/1.4/1.4/1.2
Matrix Compiler1: 5.55 KB object code size  1.2/1.0/[0.3]
Matrix Compiler2: off  [0.4]/1.6/1.2

