Circuit: * C:\Users\kenny\Documents\GitHub\SeniorDesign-Team9\Simulations\LTC3780 - LTSpice - 12V 5A\LTC3780.asc

Direct Newton iteration for .op point succeeded.

Date: Mon Apr  3 16:24:13 2023
Total elapsed time: 18.070 seconds.

tnom = 27
temp = 27
method = modified trap
totiter = 1377518
traniter = 1377502
tranpoints = 509076
accept = 372264
rejected = 136812
matrix size = 62
fillins = 45
solver = Normal
Avg thread counts: 1.0/3.0/1.0/1.0
Matrix Compiler1: 5.97 KB object code size  1.3/1.0/[0.8]
Matrix Compiler2: 5.71 KB object code size  0.4/0.9/[0.4]

