Circuit: * C:\Users\kenny\Documents\GitHub\SeniorDesign-Team9\Simulations\LTC3780 - LTSpice - 12V 5A\LTC3780.asc

Direct Newton iteration for .op point succeeded.

Date: Fri Oct 20 13:08:02 2023
Total elapsed time: 13.040 seconds.

tnom = 27
temp = 27
method = modified trap
totiter = 1430507
traniter = 1430491
tranpoints = 531558
accept = 388697
rejected = 142861
matrix size = 62
fillins = 45
solver = Normal
Avg thread counts: 1.0/1.0/1.0/1.0
Matrix Compiler1: 5.97 KB object code size  1.9/0.7/[0.5]
Matrix Compiler2: 5.71 KB object code size  0.6/0.5/[0.3]

