Circuit: * C:\Users\kenny\Documents\GitHub\SeniorDesign-Team9\Simulations\LTC4416 - LTSpice\LTC4416_Figure_5.asc

Direct Newton iteration failed to find .op point.  (Use ".option noopiter" to skip.)
Starting Gmin stepping
Gmin = 10
Gmin = 1.07374
Gmin = 0.115292
Gmin = 0.0123794
Gmin = 0.00132923
Gmin = 0.000142725
Gmin = 1.5325e-05
Gmin = 1.6455e-06
Gmin = 1.76685e-07
Gmin = 1.89714e-08
Gmin = 2.03704e-09
Gmin = 2.18725e-10
Gmin = 2.34854e-11
Gmin = 2.52173e-12
Gmin = 2.70769e-13
Gmin = 0
Gmin stepping succeeded in finding the operating point.


Date: Sat Oct  7 22:21:56 2023
Total elapsed time: 0.131 seconds.

tnom = 27
temp = 27
method = modified trap
totiter = 2975
traniter = 2614
tranpoints = 1165
accept = 1139
rejected = 26
matrix size = 66
fillins = 18
solver = Normal
Avg thread counts: 1.2/1.6/1.6/1.2
Matrix Compiler1: 4.41 KB object code size  0.7/0.4/[0.2]
Matrix Compiler2: 5.49 KB object code size  0.4/0.7/[0.3]

