Circuit: * C:\Users\kenny\Documents\GitHub\SeniorDesign-Team9\Simulations\LTC4416 - LTSpice\LTC4416_Custom_Ken.asc

Direct Newton iteration failed to find .op point.  (Use ".option noopiter" to skip.)
Starting Gmin stepping
Gmin = 10
Gmin = 1.07374
Gmin = 0.115292
Gmin = 0.0123794
Gmin = 0.00132923
Gmin = 0.000142725
Gmin = 1.5325e-05
Gmin = 1.6455e-06
Gmin = 1.76685e-07
Gmin = 1.89714e-08
Gmin = 2.03704e-09
Gmin = 2.18725e-10
Gmin = 2.34854e-11
Gmin = 2.52173e-12
Gmin = 2.70769e-13
Gmin = 0
Gmin stepping succeeded in finding the operating point.

Heightened Def Con from 0.000459196 to 0.000459197

Date: Mon Sep 18 17:29:13 2023
Total elapsed time: 0.146 seconds.

tnom = 27
temp = 27
method = modified trap
totiter = 4705
traniter = 4342
tranpoints = 1185
accept = 1142
rejected = 44
matrix size = 56
fillins = 6
solver = Normal
Avg thread counts: 1.2/1.6/1.4/1.2
Matrix Compiler1: 3.48 KB object code size  0.7/0.4/[0.2]
Matrix Compiler2: off  [0.4]/0.6/0.4

