Circuit: * C:\Users\kenny\Downloads\LTC4416_Figure_5.asc

WARNING: Less than two connections to node n003.  This node is used by v3.
Direct Newton iteration failed to find .op point.  (Use ".option noopiter" to skip.)
Starting Gmin stepping
Increasing initial diagonal Gmin to 100
Increasing initial diagonal Gmin to 1000
Increasing initial diagonal Gmin to 10000
Gmin = 10000
Gmin = 1073.74
Gmin = 115.292
Gmin = 12.3794
Gmin = 1.32923
Gmin = 0.142725
Gmin = 0.015325
Gmin = 0.0016455
Gmin = 0.000176685
Gmin = 1.89714e-05
Gmin = 2.03704e-06
Gmin = 2.18725e-07
Gmin = 2.34854e-08
Gmin = 2.52173e-09
Gmin = 2.70769e-10
Gmin = 2.90735e-11
Gmin = 3.12175e-12
Gmin = 3.35195e-13
Gmin = 0
Gmin stepping succeeded in finding the operating point.

Heightened Def Con from 0.424628 to 0.424628
Heightened Def Con from 0.425152 to 0.425152

Date: Fri Mar 10 12:27:38 2023
Total elapsed time: 0.158 seconds.

tnom = 27
temp = 27
method = modified trap
totiter = 5131
traniter = 4260
tranpoints = 1607
accept = 1452
rejected = 157
matrix size = 48
fillins = 12
solver = Normal
Avg thread counts: 1.2/1.4/1.4/1.2
Matrix Compiler1: 2.53 KB object code size  0.5/0.5/[0.3]
Matrix Compiler2: off  [0.3]/0.5/0.6

