Circuit: * C:\Users\kenny\Documents\GitHub\SeniorDesign-Team9\Simulations\LTC4416 - LTSpice\LTC4416_Figure_5.asc

Direct Newton iteration failed to find .op point.  (Use ".option noopiter" to skip.)
Starting Gmin stepping
Gmin = 10
Gmin = 1.07374
Gmin = 0.115292
Gmin = 0.0123794
Gmin = 0.00132923
Gmin = 0.000142725
Gmin = 1.5325e-05
Gmin = 1.6455e-06
Gmin = 1.76685e-07
Gmin = 1.89714e-08
Gmin = 2.03704e-09
Gmin = 2.18725e-10
Gmin = 2.34854e-11
Gmin = 2.52173e-12
Gmin = 2.70769e-13
Gmin = 0
Gmin stepping succeeded in finding the operating point.


Date: Sun Sep 10 03:57:53 2023
Total elapsed time: 0.088 seconds.

tnom = 27
temp = 27
method = modified trap
totiter = 2840
traniter = 2480
tranpoints = 1189
accept = 1146
rejected = 43
matrix size = 47
fillins = 10
solver = Normal
Avg thread counts: 1.3/1.5/1.6/1.3
Matrix Compiler1: 2.45 KB object code size  0.5/0.3/[0.2]
Matrix Compiler2: off  [0.2]/0.4/0.3

