Circuit: * C:\Users\kenny\Documents\GitHub\SeniorDesign-Team9\Simulations\LTC4416 - LTSpice\LTC4416_Custom_Ken.asc

Direct Newton iteration failed to find .op point.  (Use ".option noopiter" to skip.)
Starting Gmin stepping
Gmin = 10
Gmin = 1.07374
Gmin = 0.115292
Gmin = 0.0123794
Gmin = 0.00132923
Gmin = 0.000142725
Gmin = 1.5325e-05
Gmin = 1.6455e-06
Gmin = 1.76685e-07
Gmin = 1.89714e-08
Gmin = 2.03704e-09
Gmin = 2.18725e-10
Gmin = 2.34854e-11
Gmin = 2.52173e-12
Gmin = 2.70769e-13
Gmin = 0
Gmin stepping succeeded in finding the operating point.


Date: Sun Sep 10 04:28:32 2023
Total elapsed time: 0.102 seconds.

tnom = 27
temp = 27
method = modified trap
totiter = 2629
traniter = 2269
tranpoints = 1101
accept = 1088
rejected = 13
matrix size = 54
fillins = 6
solver = Normal
Avg thread counts: 1.3/1.6/1.6/1.3
Matrix Compiler1: 3.02 KB object code size  0.7/0.6/[0.2]
Matrix Compiler2: 4.19 KB object code size  0.3/0.5/[0.3]

